{
   "completed_at" : "20260317T130939Z",
   "completed_status" : "Success",
   "created_at" : "20260317T054821Z",
   "current_step" : 6,
   "eplusout_err" : "Program Version,EnergyPlus, Version 25.2.0-cf7368216c, YMD=2026.03.17 07:09,\n   ** Warning ** CheckEnvironmentSpecifications: SimulationControl specified doing design day simulations, but no design environments specified.\n   **   ~~~   ** ...No design environment results produced. For these results, add appropriate SizingPeriod:* objects for your simulation.\n   ** Warning ** Weather file location will be used rather than entered (IDF) Location object.\n   **   ~~~   ** ..Location object=CUERNAVACA-MATAMOROS.INTL.AP\n   **   ~~~   ** ..Weather File Location=Cuernavaca-Matamoros.Intl.AP MOR MEX SRC-TMYx WMO#=767260\n   **   ~~~   ** ..due to location differences, Latitude difference=[20.93] degrees, Longitude difference=[139.03] degrees.\n   **   ~~~   ** ..Time Zone difference=[0.0] hour(s), Elevation difference=[0.00] percent, [0.00] meters.\n   ** Warning ** Output:Meter: invalid Key Name=\"ELECTRICITY:FACILITY\" - not found.\n   ** Warning ** Output:Meter: invalid Key Name=\"NATURALGAS:FACILITY\" - not found.\n   ** Warning ** Output:Meter: invalid Key Name=\"DISTRICTHEATINGWATER:FACILITY\" - not found.\n   ** Warning ** Output:Meter: invalid Key Name=\"DISTRICTCOOLING:FACILITY\" - not found.\n   ** Warning ** Output:Meter:MeterFileOnly: invalid Key Name=\"NATURALGAS:FACILITY\" - not found.\n   ** Warning ** Output:Meter:MeterFileOnly: invalid Key Name=\"ELECTRICITY:FACILITY\" - not found.\n   ** Warning ** Output:Meter:MeterFileOnly: invalid Key Name=\"ELECTRICITY:FACILITY\" - not found.\n   ************* Testing Individual Branch Integrity\n   ************* All Branches passed integrity testing\n   ************* Testing Individual Supply Air Path Integrity\n   ************* All Supply Air Paths passed integrity testing\n   ************* Testing Individual Return Air Path Integrity\n   ************* All Return Air Paths passed integrity testing\n   ************* No node connection errors were found.\n   ************* Beginning Simulation\n   ** Warning ** Processing Monthly Tabular Reports: Variable names not valid for this simulation\n   **   ~~~   ** ...use Output:Diagnostics,DisplayExtraWarnings; to show more details on individual variables.\n   ** Warning ** The resource referenced by LifeCycleCost:UsePriceEscalation= \"U.S. AVG  COMMERCIAL-ELECTRICITY\" has no energy cost. \n   **   ~~~   ** ... It is likely that the wrong resource is used. The resource should match the meter used in Utility:Tariff.\n   ** Warning ** The resource referenced by LifeCycleCost:UsePriceEscalation= \"U.S. AVG  COMMERCIAL-DISTILLATE OIL\" has no energy cost. \n   **   ~~~   ** ... It is likely that the wrong resource is used. The resource should match the meter used in Utility:Tariff.\n   ** Warning ** The resource referenced by LifeCycleCost:UsePriceEscalation= \"U.S. AVG  COMMERCIAL-RESIDUAL OIL\" has no energy cost. \n   **   ~~~   ** ... It is likely that the wrong resource is used. The resource should match the meter used in Utility:Tariff.\n   ** Warning ** The resource referenced by LifeCycleCost:UsePriceEscalation= \"U.S. AVG  COMMERCIAL-NATURAL GAS\" has no energy cost. \n   **   ~~~   ** ... It is likely that the wrong resource is used. The resource should match the meter used in Utility:Tariff.\n   ** Warning ** The resource referenced by LifeCycleCost:UsePriceEscalation= \"U.S. AVG  COMMERCIAL-COAL\" has no energy cost. \n   **   ~~~   ** ... It is likely that the wrong resource is used. The resource should match the meter used in Utility:Tariff.\n   ************* Simulation Error Summary *************\n   ** Warning ** The following Report Variables were requested but not generated -- check.rdd file\n   **   ~~~   ** Either the IDF did not contain these elements, the variable name is misspelled,\n   **   ~~~   ** or the requested variable is an advanced output which requires Output : Diagnostics, DisplayAdvancedReportVariables;\n   ************* Key=este&#44oeste, VarName=ZONE MEAN AIR TEMPERATURE, Frequency=Hourly\n   ************* Key=techo_este&#44techo_oeste, VarName=SURFACE OUTSIDE FACE INCIDENT SOLAR RADIATION RATE PER AREA, Frequency=Hourly\n   ************* There are 3 unused schedules in input.\n   ************* Use Output:Diagnostics,DisplayUnusedSchedules; to see them.\n   ************* EnergyPlus Warmup Error Summary. During Warmup: 0 Warning; 0 Severe Errors.\n   ************* EnergyPlus Sizing Error Summary. During Sizing: 0 Warning; 0 Severe Errors.\n   ************* EnergyPlus Completed Successfully-- 15 Warning; 0 Severe Errors; Elapsed Time=00hr 00min  1.61sec\n",
   "file_paths" : 
   [
      "/tmp/osmodel-234a-f2c7-9a1c-475d-1773752768-0/resources/generated_files",
      "./files",
      "./weather",
      "../../files",
      "../../weather",
      "./"
   ],
   "hash" : "AEC3FA79",
   "run_options" : null,
   "seed_file" : "../005_measures_techos.osm",
   "started_at" : "20260317T130926Z",
   "steps" : 
   [
      {
         "arguments" : 
         {
            "key_value" : "este,oeste",
            "variable_name" : "Zone Mean Air Temperature"
         },
         "description" : "This measure adds an output variable at the requested reporting frequency.",
         "measure_dir_name" : "AddOutputVariable",
         "modeler_description" : "The measure just passes in the string and does not validate that it is a proper variable name. It is up to the user to know this or to look at the .rdd file from a previous simulation run.",
         "name" : "Zone Mean Air Temperature",
         "result" : 
         {
            "completed_at" : "20260317T130927Z",
            "measure_class_name" : "AddOutputVariable",
            "measure_display_name" : "Add Output Variable",
            "measure_name" : "add_output_variable",
            "measure_taxonomy" : "Reporting.QAQC",
            "measure_type" : "ModelMeasure",
            "measure_uid" : "2a058afb-e349-49ae-a4bf-2c56a42b4352",
            "measure_version_id" : "e84e2244-3691-44fa-ac91-7421e2a54367",
            "measure_version_modified" : "20250801T143531Z",
            "measure_xml_checksum" : "0CA4D54C",
            "started_at" : "20260317T130927Z",
            "stderr" : "",
            "stdout" : "[openstudio.measure.OSRunner] <Info> The model started with 0 output variable objects.\n[openstudio.measure.OSRunner] <Info> Adding output variable for Zone Mean Air Temperature reporting hourly.\n[openstudio.measure.OSRunner] <Info> Key value for variable is este,oeste.\n[openstudio.measure.OSRunner] <Info> The model finished with 1 output variable objects.\n",
            "step_errors" : [],
            "step_files" : [],
            "step_final_condition" : "The model finished with 1 output variable objects.",
            "step_info" : 
            [
               "Adding output variable for Zone Mean Air Temperature reporting hourly.",
               "Key value for variable is este,oeste."
            ],
            "step_initial_condition" : "The model started with 0 output variable objects.",
            "step_result" : "Success",
            "step_values" : 
            [
               {
                  "name" : "variable_name",
                  "value" : "Zone Mean Air Temperature"
               },
               {
                  "name" : "reporting_frequency",
                  "value" : "hourly"
               },
               {
                  "name" : "key_value",
                  "value" : "este,oeste"
               }
            ],
            "step_warnings" : []
         }
      },
      {
         "arguments" : 
         {
            "variable_name" : "Site Diffuse Solar Radiation Rate per Area"
         },
         "description" : "This measure adds an output variable at the requested reporting frequency.",
         "measure_dir_name" : "AddOutputVariable",
         "modeler_description" : "The measure just passes in the string and does not validate that it is a proper variable name. It is up to the user to know this or to look at the .rdd file from a previous simulation run.",
         "name" : "Site Diffuse Solar Radiation Rate per Area",
         "result" : 
         {
            "completed_at" : "20260317T130927Z",
            "measure_class_name" : "AddOutputVariable",
            "measure_display_name" : "Add Output Variable",
            "measure_name" : "add_output_variable",
            "measure_taxonomy" : "Reporting.QAQC",
            "measure_type" : "ModelMeasure",
            "measure_uid" : "2a058afb-e349-49ae-a4bf-2c56a42b4352",
            "measure_version_id" : "e84e2244-3691-44fa-ac91-7421e2a54367",
            "measure_version_modified" : "20250801T143531Z",
            "measure_xml_checksum" : "0CA4D54C",
            "started_at" : "20260317T130927Z",
            "stderr" : "",
            "stdout" : "[openstudio.measure.OSRunner] <Info> The model started with 1 output variable objects.\n[openstudio.measure.OSRunner] <Info> Adding output variable for Site Diffuse Solar Radiation Rate per Area reporting hourly.\n[openstudio.measure.OSRunner] <Info> Key value for variable is *.\n[openstudio.measure.OSRunner] <Info> The model finished with 2 output variable objects.\n",
            "step_errors" : [],
            "step_files" : [],
            "step_final_condition" : "The model finished with 2 output variable objects.",
            "step_info" : 
            [
               "Adding output variable for Site Diffuse Solar Radiation Rate per Area reporting hourly.",
               "Key value for variable is *."
            ],
            "step_initial_condition" : "The model started with 1 output variable objects.",
            "step_result" : "Success",
            "step_values" : 
            [
               {
                  "name" : "variable_name",
                  "value" : "Site Diffuse Solar Radiation Rate per Area"
               },
               {
                  "name" : "reporting_frequency",
                  "value" : "hourly"
               },
               {
                  "name" : "key_value",
                  "value" : "*"
               }
            ],
            "step_warnings" : []
         }
      },
      {
         "arguments" : 
         {
            "variable_name" : "Site Direct Solar Radiation Rate per Area"
         },
         "description" : "This measure adds an output variable at the requested reporting frequency.",
         "measure_dir_name" : "AddOutputVariable",
         "modeler_description" : "The measure just passes in the string and does not validate that it is a proper variable name. It is up to the user to know this or to look at the .rdd file from a previous simulation run.",
         "name" : "Site Direct Solar Radiation Rate per Area",
         "result" : 
         {
            "completed_at" : "20260317T130927Z",
            "measure_class_name" : "AddOutputVariable",
            "measure_display_name" : "Add Output Variable",
            "measure_name" : "add_output_variable",
            "measure_taxonomy" : "Reporting.QAQC",
            "measure_type" : "ModelMeasure",
            "measure_uid" : "2a058afb-e349-49ae-a4bf-2c56a42b4352",
            "measure_version_id" : "e84e2244-3691-44fa-ac91-7421e2a54367",
            "measure_version_modified" : "20250801T143531Z",
            "measure_xml_checksum" : "0CA4D54C",
            "started_at" : "20260317T130927Z",
            "stderr" : "",
            "stdout" : "[openstudio.measure.OSRunner] <Info> The model started with 2 output variable objects.\n[openstudio.measure.OSRunner] <Info> Adding output variable for Site Direct Solar Radiation Rate per Area reporting hourly.\n[openstudio.measure.OSRunner] <Info> Key value for variable is *.\n[openstudio.measure.OSRunner] <Info> The model finished with 3 output variable objects.\n",
            "step_errors" : [],
            "step_files" : [],
            "step_final_condition" : "The model finished with 3 output variable objects.",
            "step_info" : 
            [
               "Adding output variable for Site Direct Solar Radiation Rate per Area reporting hourly.",
               "Key value for variable is *."
            ],
            "step_initial_condition" : "The model started with 2 output variable objects.",
            "step_result" : "Success",
            "step_values" : 
            [
               {
                  "name" : "variable_name",
                  "value" : "Site Direct Solar Radiation Rate per Area"
               },
               {
                  "name" : "reporting_frequency",
                  "value" : "hourly"
               },
               {
                  "name" : "key_value",
                  "value" : "*"
               }
            ],
            "step_warnings" : []
         }
      },
      {
         "arguments" : 
         {
            "key_value" : "techo_este,techo_oeste",
            "variable_name" : "Surface Outside Face Incident Solar Radiation Rate per Area"
         },
         "description" : "This measure adds an output variable at the requested reporting frequency.",
         "measure_dir_name" : "AddOutputVariable",
         "modeler_description" : "The measure just passes in the string and does not validate that it is a proper variable name. It is up to the user to know this or to look at the .rdd file from a previous simulation run.",
         "name" : "Surface Outside Face Incident Solar Radiation Rate per Area",
         "result" : 
         {
            "completed_at" : "20260317T130927Z",
            "measure_class_name" : "AddOutputVariable",
            "measure_display_name" : "Add Output Variable",
            "measure_name" : "add_output_variable",
            "measure_taxonomy" : "Reporting.QAQC",
            "measure_type" : "ModelMeasure",
            "measure_uid" : "2a058afb-e349-49ae-a4bf-2c56a42b4352",
            "measure_version_id" : "e84e2244-3691-44fa-ac91-7421e2a54367",
            "measure_version_modified" : "20250801T143531Z",
            "measure_xml_checksum" : "0CA4D54C",
            "started_at" : "20260317T130927Z",
            "stderr" : "",
            "stdout" : "[openstudio.measure.OSRunner] <Info> The model started with 3 output variable objects.\n[openstudio.measure.OSRunner] <Info> Adding output variable for Surface Outside Face Incident Solar Radiation Rate per Area reporting hourly.\n[openstudio.measure.OSRunner] <Info> Key value for variable is techo_este,techo_oeste.\n[openstudio.measure.OSRunner] <Info> The model finished with 4 output variable objects.\n",
            "step_errors" : [],
            "step_files" : [],
            "step_final_condition" : "The model finished with 4 output variable objects.",
            "step_info" : 
            [
               "Adding output variable for Surface Outside Face Incident Solar Radiation Rate per Area reporting hourly.",
               "Key value for variable is techo_este,techo_oeste."
            ],
            "step_initial_condition" : "The model started with 3 output variable objects.",
            "step_result" : "Success",
            "step_values" : 
            [
               {
                  "name" : "variable_name",
                  "value" : "Surface Outside Face Incident Solar Radiation Rate per Area"
               },
               {
                  "name" : "reporting_frequency",
                  "value" : "hourly"
               },
               {
                  "name" : "key_value",
                  "value" : "techo_este,techo_oeste"
               }
            ],
            "step_warnings" : []
         }
      },
      {
         "arguments" : {},
         "description" : "This measure creates high level tables and charts pulling both from model inputs and EnergyPlus results. It has building level information as well as detail on space types, thermal zones, HVAC systems, envelope characteristics, and economics. Click the heading above a chart to view a table of the chart data.",
         "measure_dir_name" : "OpenStudioResults",
         "modeler_description" : "For the most part consumption data comes from the tabular EnergyPlus results, however there are a few requests added for time series results. Space type and loop details come from the OpenStudio model. The code for this is modular, making it easy to use as a template for your own custom reports. The structure of the report uses bootstrap, and the graphs use dimple js. The new measure warning section will show warnings generated by upstream measures. It will not show forward translation warnings, EnergyPlus warnings, or warnings that might be reported by this measure.",
         "name" : "OpenStudio Results",
         "result" : 
         {
            "completed_at" : "20260317T130938Z",
            "measure_class_name" : "OpenStudioResults",
            "measure_display_name" : "OpenStudio Results",
            "measure_name" : "openstudio_results",
            "measure_taxonomy" : "Reporting.QAQC",
            "measure_type" : "ReportingMeasure",
            "measure_uid" : "a25386cd-60e4-46bc-8b11-c755f379d916",
            "measure_version_id" : "b5b4c945-c608-47fb-9596-08234e7c2a0f",
            "measure_version_modified" : "20250808T034825Z",
            "measure_xml_checksum" : "557BF06F",
            "started_at" : "20260317T130934Z",
            "stderr" : "",
            "stdout" : "[openstudio.energyplus.SqlFile] <Debug> Dictionary Built\n[openstudio.standards.standard] <Info> Using OpenStudio Standards version 0.8.5 with template 90.1-2013.\n[openstudio.standards.standard] <Info> Loading OpenStudio Standards data for \n[openstudio.standards.standard] <Debug> Loading JSON files from OpenStudio CLI embedded directory :/ruby/3.2.0/gems/openstudio-standards-0.8.5/lib/openstudio-standards/standards/ashrae_90_1\n[openstudio.standards.standard] <Debug> Adding hvac_inference from Any.hvac_inference.json\n[openstudio.standards.standard] <Debug> Adding size_category from Any.size_category.json\n[openstudio.standards.standard] <Debug> Adding climate_zone_sets from ashrae_90_1.climate_zone_sets.json\n[openstudio.standards.standard] <Debug> Adding climate_zones from ashrae_90_1.climate_zones.json\n[openstudio.standards.standard] <Debug> Adding constructions from ashrae_90_1.constructions.json\n[openstudio.standards.standard] <Debug> Adding curves from ashrae_90_1.curves.json\n[openstudio.standards.standard] <Debug> Adding entryways from ashrae_90_1.entryways.json\n[openstudio.standards.standard] <Debug> Adding materials from ashrae_90_1.materials.json\n[openstudio.standards.standard] <Debug> Adding parking from ashrae_90_1.parking.json\n[openstudio.standards.standard] <Debug> Adding schedules from ashrae_90_1.schedules.json\n[openstudio.standards.standard] <Debug> Loading JSON files from OpenStudio CLI embedded directory :/ruby/3.2.0/gems/openstudio-standards-0.8.5/lib/openstudio-standards/standards/ashrae_90_1/ashrae_90_1_2013\n[openstudio.standards.standard] <Debug> Adding boilers from ashrae_90_1_2013.boilers.json\n[openstudio.standards.standard] <Debug> Adding chillers from ashrae_90_1_2013.chillers.json\n[openstudio.standards.standard] <Debug> Adding computer_room_acs from ashrae_90_1_2013.computer_room_acs.json\n[openstudio.standards.standard] <Debug> Adding construction_properties from ashrae_90_1_2013.construction_properties.json\n[openstudio.standards.standard] <Debug> Adding construction_sets from ashrae_90_1_2013.construction_sets.json\n[openstudio.standards.standard] <Debug> Adding economizers from ashrae_90_1_2013.economizers.json\n[openstudio.standards.standard] <Debug> Adding elevators from ashrae_90_1_2013.elevators.json\n[openstudio.standards.standard] <Debug> Adding energy_recovery from ashrae_90_1_2013.energy_recovery.json\n[openstudio.standards.standard] <Debug> Adding exterior_lighting from ashrae_90_1_2013.ext_ltg.json\n[openstudio.standards.standard] <Debug> Adding furnaces from ashrae_90_1_2013.furnaces.json\n[openstudio.standards.standard] <Debug> Adding heat_pumps from ashrae_90_1_2013.heat_pumps.json\n[openstudio.standards.standard] <Debug> Adding heat_pumps_heating from ashrae_90_1_2013.heat_pumps_heating.json\n[openstudio.standards.standard] <Debug> Adding heat_rejection from ashrae_90_1_2013.heat_rejection.json\n[openstudio.standards.standard] <Debug> Adding motors from ashrae_90_1_2013.motors.json\n[openstudio.standards.standard] <Debug> Adding prototype_inputs from ashrae_90_1_2013.prototype_inputs.json\n[openstudio.standards.standard] <Debug> Adding refrigerated_cases from ashrae_90_1_2013.ref_cases.json\n[openstudio.standards.standard] <Debug> Adding refrigeration_system_lineup from ashrae_90_1_2013.ref_lnup.json\n[openstudio.standards.standard] <Debug> Adding refrigeration_compressors from ashrae_90_1_2013.refrigeration_compressors.json\n[openstudio.standards.standard] <Debug> Adding refrigeration_condenser from ashrae_90_1_2013.refrigeration_condenser.json\n[openstudio.standards.standard] <Debug> Adding refrigeration_system from ashrae_90_1_2013.refrigeration_system.json\n[openstudio.standards.standard] <Debug> Adding refrigeration_walkins from ashrae_90_1_2013.refrigeration_walkins.json\n[openstudio.standards.standard] <Debug> Adding space_types from ashrae_90_1_2013.spc_typ.json\n[openstudio.standards.standard] <Debug> Adding unitary_acs from ashrae_90_1_2013.unitary_acs.json\n[openstudio.standards.standard] <Debug> Adding vrfs from ashrae_90_1_2013.vrfs.json\n[openstudio.standards.standard] <Debug> Adding water_heaters from ashrae_90_1_2013.water_heaters.json\n[openstudio.standards.standard] <Debug> Adding water_source_heat_pumps from ashrae_90_1_2013.water_source_heat_pumps.json\n[openstudio.standards.standard] <Debug> Adding water_source_heat_pumps_heating from ashrae_90_1_2013.water_source_heat_pumps_heating.json\n[openstudio.standards.standard] <Info> Loading OpenStudio Standards data for 90.1-2013\n[openstudio.standards.standard] <Debug> Loading JSON files from OpenStudio CLI embedded directory :/ruby/3.2.0/gems/openstudio-standards-0.8.5/lib/openstudio-standards/standards/ashrae_90_1\n[openstudio.standards.standard] <Debug> Adding hvac_inference from Any.hvac_inference.json\n[openstudio.standards.standard] <Debug> Adding size_category from Any.size_category.json\n[openstudio.standards.standard] <Debug> Adding climate_zone_sets from ashrae_90_1.climate_zone_sets.json\n[openstudio.standards.standard] <Debug> Adding climate_zones from ashrae_90_1.climate_zones.json\n[openstudio.standards.standard] <Debug> Adding constructions from ashrae_90_1.constructions.json\n[openstudio.standards.standard] <Debug> Adding curves from ashrae_90_1.curves.json\n[openstudio.standards.standard] <Debug> Adding entryways from ashrae_90_1.entryways.json\n[openstudio.standards.standard] <Debug> Adding materials from ashrae_90_1.materials.json\n[openstudio.standards.standard] <Debug> Adding parking from ashrae_90_1.parking.json\n[openstudio.standards.standard] <Debug> Adding schedules from ashrae_90_1.schedules.json\n[openstudio.standards.standard] <Debug> Loading JSON files from OpenStudio CLI embedded directory :/ruby/3.2.0/gems/openstudio-standards-0.8.5/lib/openstudio-standards/standards/ashrae_90_1/ashrae_90_1_2013\n[openstudio.standards.standard] <Debug> Adding boilers from ashrae_90_1_2013.boilers.json\n[openstudio.standards.standard] <Debug> Adding chillers from ashrae_90_1_2013.chillers.json\n[openstudio.standards.standard] <Debug> Adding computer_room_acs from ashrae_90_1_2013.computer_room_acs.json\n[openstudio.standards.standard] <Debug> Adding construction_properties from ashrae_90_1_2013.construction_properties.json\n[openstudio.standards.standard] <Debug> Adding construction_sets from ashrae_90_1_2013.construction_sets.json\n[openstudio.standards.standard] <Debug> Adding economizers from ashrae_90_1_2013.economizers.json\n[openstudio.standards.standard] <Debug> Adding elevators from ashrae_90_1_2013.elevators.json\n[openstudio.standards.standard] <Debug> Adding energy_recovery from ashrae_90_1_2013.energy_recovery.json\n[openstudio.standards.standard] <Debug> Adding exterior_lighting from ashrae_90_1_2013.ext_ltg.json\n[openstudio.standards.standard] <Debug> Adding furnaces from ashrae_90_1_2013.furnaces.json\n[openstudio.standards.standard] <Debug> Adding heat_pumps from ashrae_90_1_2013.heat_pumps.json\n[openstudio.standards.standard] <Debug> Adding heat_pumps_heating from ashrae_90_1_2013.heat_pumps_heating.json\n[openstudio.standards.standard] <Debug> Adding heat_rejection from ashrae_90_1_2013.heat_rejection.json\n[openstudio.standards.standard] <Debug> Adding motors from ashrae_90_1_2013.motors.json\n[openstudio.standards.standard] <Debug> Adding prototype_inputs from ashrae_90_1_2013.prototype_inputs.json\n[openstudio.standards.standard] <Debug> Adding refrigerated_cases from ashrae_90_1_2013.ref_cases.json\n[openstudio.standards.standard] <Debug> Adding refrigeration_system_lineup from ashrae_90_1_2013.ref_lnup.json\n[openstudio.standards.standard] <Debug> Adding refrigeration_compressors from ashrae_90_1_2013.refrigeration_compressors.json\n[openstudio.standards.standard] <Debug> Adding refrigeration_condenser from ashrae_90_1_2013.refrigeration_condenser.json\n[openstudio.standards.standard] <Debug> Adding refrigeration_system from ashrae_90_1_2013.refrigeration_system.json\n[openstudio.standards.standard] <Debug> Adding refrigeration_walkins from ashrae_90_1_2013.refrigeration_walkins.json\n[openstudio.standards.standard] <Debug> Adding space_types from ashrae_90_1_2013.spc_typ.json\n[openstudio.standards.standard] <Debug> Adding unitary_acs from ashrae_90_1_2013.unitary_acs.json\n[openstudio.standards.standard] <Debug> Adding vrfs from ashrae_90_1_2013.vrfs.json\n[openstudio.standards.standard] <Debug> Adding water_heaters from ashrae_90_1_2013.water_heaters.json\n[openstudio.standards.standard] <Debug> Adding water_source_heat_pumps from ashrae_90_1_2013.water_source_heat_pumps.json\n[openstudio.standards.standard] <Debug> Adding water_source_heat_pumps_heating from ashrae_90_1_2013.water_source_heat_pumps_heating.json\n[openstudio.measure.OSRunner] <Info> Gathering data from EnergyPlus SQL file and OSM model. Will report in IP Units\n[openstudio.standards.standard] <Info> Using OpenStudio Standards version 0.8.5 with template 90.1-2013.\n[openstudio.standards.standard] <Info> Loading OpenStudio Standards data for \n[openstudio.standards.standard] <Debug> Loading JSON files from OpenStudio CLI embedded directory :/ruby/3.2.0/gems/openstudio-standards-0.8.5/lib/openstudio-standards/standards/ashrae_90_1\n[openstudio.standards.standard] <Debug> Adding hvac_inference from Any.hvac_inference.json\n[openstudio.standards.standard] <Debug> Adding size_category from Any.size_category.json\n[openstudio.standards.standard] <Debug> Adding climate_zone_sets from ashrae_90_1.climate_zone_sets.json\n[openstudio.standards.standard] <Debug> Adding climate_zones from ashrae_90_1.climate_zones.json\n[openstudio.standards.standard] <Debug> Adding constructions from ashrae_90_1.constructions.json\n[openstudio.standards.standard] <Debug> Adding curves from ashrae_90_1.curves.json\n[openstudio.standards.standard] <Debug> Adding entryways from ashrae_90_1.entryways.json\n[openstudio.standards.standard] <Debug> Adding materials from ashrae_90_1.materials.json\n[openstudio.standards.standard] <Debug> Adding parking from ashrae_90_1.parking.json\n[openstudio.standards.standard] <Debug> Adding schedules from ashrae_90_1.schedules.json\n[openstudio.standards.standard] <Debug> Loading JSON files from OpenStudio CLI embedded directory :/ruby/3.2.0/gems/openstudio-standards-0.8.5/lib/openstudio-standards/standards/ashrae_90_1/ashrae_90_1_2013\n[openstudio.standards.standard] <Debug> Adding boilers from ashrae_90_1_2013.boilers.json\n[openstudio.standards.standard] <Debug> Adding chillers from ashrae_90_1_2013.chillers.json\n[openstudio.standards.standard] <Debug> Adding computer_room_acs from ashrae_90_1_2013.computer_room_acs.json\n[openstudio.standards.standard] <Debug> Adding construction_properties from ashrae_90_1_2013.construction_properties.json\n[openstudio.standards.standard] <Debug> Adding construction_sets from ashrae_90_1_2013.construction_sets.json\n[openstudio.standards.standard] <Debug> Adding economizers from ashrae_90_1_2013.economizers.json\n[openstudio.standards.standard] <Debug> Adding elevators from ashrae_90_1_2013.elevators.json\n[openstudio.standards.standard] <Debug> Adding energy_recovery from ashrae_90_1_2013.energy_recovery.json\n[openstudio.standards.standard] <Debug> Adding exterior_lighting from ashrae_90_1_2013.ext_ltg.json\n[openstudio.standards.standard] <Debug> Adding furnaces from ashrae_90_1_2013.furnaces.json\n[openstudio.standards.standard] <Debug> Adding heat_pumps from ashrae_90_1_2013.heat_pumps.json\n[openstudio.standards.standard] <Debug> Adding heat_pumps_heating from ashrae_90_1_2013.heat_pumps_heating.json\n[openstudio.standards.standard] <Debug> Adding heat_rejection from ashrae_90_1_2013.heat_rejection.json\n[openstudio.standards.standard] <Debug> Adding motors from ashrae_90_1_2013.motors.json\n[openstudio.standards.standard] <Debug> Adding prototype_inputs from ashrae_90_1_2013.prototype_inputs.json\n[openstudio.standards.standard] <Debug> Adding refrigerated_cases from ashrae_90_1_2013.ref_cases.json\n[openstudio.standards.standard] <Debug> Adding refrigeration_system_lineup from ashrae_90_1_2013.ref_lnup.json\n[openstudio.standards.standard] <Debug> Adding refrigeration_compressors from ashrae_90_1_2013.refrigeration_compressors.json\n[openstudio.standards.standard] <Debug> Adding refrigeration_condenser from ashrae_90_1_2013.refrigeration_condenser.json\n[openstudio.standards.standard] <Debug> Adding refrigeration_system from ashrae_90_1_2013.refrigeration_system.json\n[openstudio.standards.standard] <Debug> Adding refrigeration_walkins from ashrae_90_1_2013.refrigeration_walkins.json\n[openstudio.standards.standard] <Debug> Adding space_types from ashrae_90_1_2013.spc_typ.json\n[openstudio.standards.standard] <Debug> Adding unitary_acs from ashrae_90_1_2013.unitary_acs.json\n[openstudio.standards.standard] <Debug> Adding vrfs from ashrae_90_1_2013.vrfs.json\n[openstudio.standards.standard] <Debug> Adding water_heaters from ashrae_90_1_2013.water_heaters.json\n[openstudio.standards.standard] <Debug> Adding water_source_heat_pumps from ashrae_90_1_2013.water_source_heat_pumps.json\n[openstudio.standards.standard] <Debug> Adding water_source_heat_pumps_heating from ashrae_90_1_2013.water_source_heat_pumps_heating.json\n[openstudio.standards.standard] <Info> Loading OpenStudio Standards data for 90.1-2013\n[openstudio.standards.standard] <Debug> Loading JSON files from OpenStudio CLI embedded directory :/ruby/3.2.0/gems/openstudio-standards-0.8.5/lib/openstudio-standards/standards/ashrae_90_1\n[openstudio.standards.standard] <Debug> Adding hvac_inference from Any.hvac_inference.json\n[openstudio.standards.standard] <Debug> Adding size_category from Any.size_category.json\n[openstudio.standards.standard] <Debug> Adding climate_zone_sets from ashrae_90_1.climate_zone_sets.json\n[openstudio.standards.standard] <Debug> Adding climate_zones from ashrae_90_1.climate_zones.json\n[openstudio.standards.standard] <Debug> Adding constructions from ashrae_90_1.constructions.json\n[openstudio.standards.standard] <Debug> Adding curves from ashrae_90_1.curves.json\n[openstudio.standards.standard] <Debug> Adding entryways from ashrae_90_1.entryways.json\n[openstudio.standards.standard] <Debug> Adding materials from ashrae_90_1.materials.json\n[openstudio.standards.standard] <Debug> Adding parking from ashrae_90_1.parking.json\n[openstudio.standards.standard] <Debug> Adding schedules from ashrae_90_1.schedules.json\n[openstudio.standards.standard] <Debug> Loading JSON files from OpenStudio CLI embedded directory :/ruby/3.2.0/gems/openstudio-standards-0.8.5/lib/openstudio-standards/standards/ashrae_90_1/ashrae_90_1_2013\n[openstudio.standards.standard] <Debug> Adding boilers from ashrae_90_1_2013.boilers.json\n[openstudio.standards.standard] <Debug> Adding chillers from ashrae_90_1_2013.chillers.json\n[openstudio.standards.standard] <Debug> Adding computer_room_acs from ashrae_90_1_2013.computer_room_acs.json\n[openstudio.standards.standard] <Debug> Adding construction_properties from ashrae_90_1_2013.construction_properties.json\n[openstudio.standards.standard] <Debug> Adding construction_sets from ashrae_90_1_2013.construction_sets.json\n[openstudio.standards.standard] <Debug> Adding economizers from ashrae_90_1_2013.economizers.json\n[openstudio.standards.standard] <Debug> Adding elevators from ashrae_90_1_2013.elevators.json\n[openstudio.standards.standard] <Debug> Adding energy_recovery from ashrae_90_1_2013.energy_recovery.json\n[openstudio.standards.standard] <Debug> Adding exterior_lighting from ashrae_90_1_2013.ext_ltg.json\n[openstudio.standards.standard] <Debug> Adding furnaces from ashrae_90_1_2013.furnaces.json\n[openstudio.standards.standard] <Debug> Adding heat_pumps from ashrae_90_1_2013.heat_pumps.json\n[openstudio.standards.standard] <Debug> Adding heat_pumps_heating from ashrae_90_1_2013.heat_pumps_heating.json\n[openstudio.standards.standard] <Debug> Adding heat_rejection from ashrae_90_1_2013.heat_rejection.json\n[openstudio.standards.standard] <Debug> Adding motors from ashrae_90_1_2013.motors.json\n[openstudio.standards.standard] <Debug> Adding prototype_inputs from ashrae_90_1_2013.prototype_inputs.json\n[openstudio.standards.standard] <Debug> Adding refrigerated_cases from ashrae_90_1_2013.ref_cases.json\n[openstudio.standards.standard] <Debug> Adding refrigeration_system_lineup from ashrae_90_1_2013.ref_lnup.json\n[openstudio.standards.standard] <Debug> Adding refrigeration_compressors from ashrae_90_1_2013.refrigeration_compressors.json\n[openstudio.standards.standard] <Debug> Adding refrigeration_condenser from ashrae_90_1_2013.refrigeration_condenser.json\n[openstudio.standards.standard] <Debug> Adding refrigeration_system from ashrae_90_1_2013.refrigeration_system.json\n[openstudio.standards.standard] <Debug> Adding refrigeration_walkins from ashrae_90_1_2013.refrigeration_walkins.json\n[openstudio.standards.standard] <Debug> Adding space_types from ashrae_90_1_2013.spc_typ.json\n[openstudio.standards.standard] <Debug> Adding unitary_acs from ashrae_90_1_2013.unitary_acs.json\n[openstudio.standards.standard] <Debug> Adding vrfs from ashrae_90_1_2013.vrfs.json\n[openstudio.standards.standard] <Debug> Adding water_heaters from ashrae_90_1_2013.water_heaters.json\n[openstudio.standards.standard] <Debug> Adding water_source_heat_pumps from ashrae_90_1_2013.water_source_heat_pumps.json\n[openstudio.standards.standard] <Debug> Adding water_source_heat_pumps_heating from ashrae_90_1_2013.water_source_heat_pumps_heating.json\n[openstudio.standards.standard] <Info> Using OpenStudio Standards version 0.8.5 with template 90.1-2013.\n[openstudio.standards.standard] <Info> Loading OpenStudio Standards data for \n[openstudio.standards.standard] <Debug> Loading JSON files from OpenStudio CLI embedded directory :/ruby/3.2.0/gems/openstudio-standards-0.8.5/lib/openstudio-standards/standards/ashrae_90_1\n[openstudio.standards.standard] <Debug> Adding hvac_inference from Any.hvac_inference.json\n[openstudio.standards.standard] <Debug> Adding size_category from Any.size_category.json\n[openstudio.standards.standard] <Debug> Adding climate_zone_sets from ashrae_90_1.climate_zone_sets.json\n[openstudio.standards.standard] <Debug> Adding climate_zones from ashrae_90_1.climate_zones.json\n[openstudio.standards.standard] <Debug> Adding constructions from ashrae_90_1.constructions.json\n[openstudio.standards.standard] <Debug> Adding curves from ashrae_90_1.curves.json\n[openstudio.standards.standard] <Debug> Adding entryways from ashrae_90_1.entryways.json\n[openstudio.standards.standard] <Debug> Adding materials from ashrae_90_1.materials.json\n[openstudio.standards.standard] <Debug> Adding parking from ashrae_90_1.parking.json\n[openstudio.standards.standard] <Debug> Adding schedules from ashrae_90_1.schedules.json\n[openstudio.standards.standard] <Debug> Loading JSON files from OpenStudio CLI embedded directory :/ruby/3.2.0/gems/openstudio-standards-0.8.5/lib/openstudio-standards/standards/ashrae_90_1/ashrae_90_1_2013\n[openstudio.standards.standard] <Debug> Adding boilers from ashrae_90_1_2013.boilers.json\n[openstudio.standards.standard] <Debug> Adding chillers from ashrae_90_1_2013.chillers.json\n[openstudio.standards.standard] <Debug> Adding computer_room_acs from ashrae_90_1_2013.computer_room_acs.json\n[openstudio.standards.standard] <Debug> Adding construction_properties from ashrae_90_1_2013.construction_properties.json\n[openstudio.standards.standard] <Debug> Adding construction_sets from ashrae_90_1_2013.construction_sets.json\n[openstudio.standards.standard] <Debug> Adding economizers from ashrae_90_1_2013.economizers.json\n[openstudio.standards.standard] <Debug> Adding elevators from ashrae_90_1_2013.elevators.json\n[openstudio.standards.standard] <Debug> Adding energy_recovery from ashrae_90_1_2013.energy_recovery.json\n[openstudio.standards.standard] <Debug> Adding exterior_lighting from ashrae_90_1_2013.ext_ltg.json\n[openstudio.standards.standard] <Debug> Adding furnaces from ashrae_90_1_2013.furnaces.json\n[openstudio.standards.standard] <Debug> Adding heat_pumps from ashrae_90_1_2013.heat_pumps.json\n[openstudio.standards.standard] <Debug> Adding heat_pumps_heating from ashrae_90_1_2013.heat_pumps_heating.json\n[openstudio.standards.standard] <Debug> Adding heat_rejection from ashrae_90_1_2013.heat_rejection.json\n[openstudio.standards.standard] <Debug> Adding motors from ashrae_90_1_2013.motors.json\n[openstudio.standards.standard] <Debug> Adding prototype_inputs from ashrae_90_1_2013.prototype_inputs.json\n[openstudio.standards.standard] <Debug> Adding refrigerated_cases from ashrae_90_1_2013.ref_cases.json\n[openstudio.standards.standard] <Debug> Adding refrigeration_system_lineup from ashrae_90_1_2013.ref_lnup.json\n[openstudio.standards.standard] <Debug> Adding refrigeration_compressors from ashrae_90_1_2013.refrigeration_compressors.json\n[openstudio.standards.standard] <Debug> Adding refrigeration_condenser from ashrae_90_1_2013.refrigeration_condenser.json\n[openstudio.standards.standard] <Debug> Adding refrigeration_system from ashrae_90_1_2013.refrigeration_system.json\n[openstudio.standards.standard] <Debug> Adding refrigeration_walkins from ashrae_90_1_2013.refrigeration_walkins.json\n[openstudio.standards.standard] <Debug> Adding space_types from ashrae_90_1_2013.spc_typ.json\n[openstudio.standards.standard] <Debug> Adding unitary_acs from ashrae_90_1_2013.unitary_acs.json\n[openstudio.standards.standard] <Debug> Adding vrfs from ashrae_90_1_2013.vrfs.json\n[openstudio.standards.standard] <Debug> Adding water_heaters from ashrae_90_1_2013.water_heaters.json\n[openstudio.standards.standard] <Debug> Adding water_source_heat_pumps from ashrae_90_1_2013.water_source_heat_pumps.json\n[openstudio.standards.standard] <Debug> Adding water_source_heat_pumps_heating from ashrae_90_1_2013.water_source_heat_pumps_heating.json\n[openstudio.standards.standard] <Info> Loading OpenStudio Standards data for 90.1-2013\n[openstudio.standards.standard] <Debug> Loading JSON files from OpenStudio CLI embedded directory :/ruby/3.2.0/gems/openstudio-standards-0.8.5/lib/openstudio-standards/standards/ashrae_90_1\n[openstudio.standards.standard] <Debug> Adding hvac_inference from Any.hvac_inference.json\n[openstudio.standards.standard] <Debug> Adding size_category from Any.size_category.json\n[openstudio.standards.standard] <Debug> Adding climate_zone_sets from ashrae_90_1.climate_zone_sets.json\n[openstudio.standards.standard] <Debug> Adding climate_zones from ashrae_90_1.climate_zones.json\n[openstudio.standards.standard] <Debug> Adding constructions from ashrae_90_1.constructions.json\n[openstudio.standards.standard] <Debug> Adding curves from ashrae_90_1.curves.json\n[openstudio.standards.standard] <Debug> Adding entryways from ashrae_90_1.entryways.json\n[openstudio.standards.standard] <Debug> Adding materials from ashrae_90_1.materials.json\n[openstudio.standards.standard] <Debug> Adding parking from ashrae_90_1.parking.json\n[openstudio.standards.standard] <Debug> Adding schedules from ashrae_90_1.schedules.json\n[openstudio.standards.standard] <Debug> Loading JSON files from OpenStudio CLI embedded directory :/ruby/3.2.0/gems/openstudio-standards-0.8.5/lib/openstudio-standards/standards/ashrae_90_1/ashrae_90_1_2013\n[openstudio.standards.standard] <Debug> Adding boilers from ashrae_90_1_2013.boilers.json\n[openstudio.standards.standard] <Debug> Adding chillers from ashrae_90_1_2013.chillers.json\n[openstudio.standards.standard] <Debug> Adding computer_room_acs from ashrae_90_1_2013.computer_room_acs.json\n[openstudio.standards.standard] <Debug> Adding construction_properties from ashrae_90_1_2013.construction_properties.json\n[openstudio.standards.standard] <Debug> Adding construction_sets from ashrae_90_1_2013.construction_sets.json\n[openstudio.standards.standard] <Debug> Adding economizers from ashrae_90_1_2013.economizers.json\n[openstudio.standards.standard] <Debug> Adding elevators from ashrae_90_1_2013.elevators.json\n[openstudio.standards.standard] <Debug> Adding energy_recovery from ashrae_90_1_2013.energy_recovery.json\n[openstudio.standards.standard] <Debug> Adding exterior_lighting from ashrae_90_1_2013.ext_ltg.json\n[openstudio.standards.standard] <Debug> Adding furnaces from ashrae_90_1_2013.furnaces.json\n[openstudio.standards.standard] <Debug> Adding heat_pumps from ashrae_90_1_2013.heat_pumps.json\n[openstudio.standards.standard] <Debug> Adding heat_pumps_heating from ashrae_90_1_2013.heat_pumps_heating.json\n[openstudio.standards.standard] <Debug> Adding heat_rejection from ashrae_90_1_2013.heat_rejection.json\n[openstudio.standards.standard] <Debug> Adding motors from ashrae_90_1_2013.motors.json\n[openstudio.standards.standard] <Debug> Adding prototype_inputs from ashrae_90_1_2013.prototype_inputs.json\n[openstudio.standards.standard] <Debug> Adding refrigerated_cases from ashrae_90_1_2013.ref_cases.json\n[openstudio.standards.standard] <Debug> Adding refrigeration_system_lineup from ashrae_90_1_2013.ref_lnup.json\n[openstudio.standards.standard] <Debug> Adding refrigeration_compressors from ashrae_90_1_2013.refrigeration_compressors.json\n[openstudio.standards.standard] <Debug> Adding refrigeration_condenser from ashrae_90_1_2013.refrigeration_condenser.json\n[openstudio.standards.standard] <Debug> Adding refrigeration_system from ashrae_90_1_2013.refrigeration_system.json\n[openstudio.standards.standard] <Debug> Adding refrigeration_walkins from ashrae_90_1_2013.refrigeration_walkins.json\n[openstudio.standards.standard] <Debug> Adding space_types from ashrae_90_1_2013.spc_typ.json\n[openstudio.standards.standard] <Debug> Adding unitary_acs from ashrae_90_1_2013.unitary_acs.json\n[openstudio.standards.standard] <Debug> Adding vrfs from ashrae_90_1_2013.vrfs.json\n[openstudio.standards.standard] <Debug> Adding water_heaters from ashrae_90_1_2013.water_heaters.json\n[openstudio.standards.standard] <Debug> Adding water_source_heat_pumps from ashrae_90_1_2013.water_source_heat_pumps.json\n[openstudio.standards.standard] <Debug> Adding water_source_heat_pumps_heating from ashrae_90_1_2013.water_source_heat_pumps_heating.json\n[openstudio.energyplus.SqlFile] <Debug> Making time series for envPeriod = 'RUN PERIOD 1', reportingFrequency = 'Monthly', timeSeriesName = 'Site Outdoor Air Drybulb Temperature', keyValue = 'Environment'\n[openstudio.energyplus.SqlFile] <Debug> RUN PERIOD 1\n[openstudio.energyplus.SqlFile] <Debug> Site Outdoor Air Drybulb Temperature\n[openstudio.energyplus.SqlFile] <Debug> SQL Query:\nSELECT dt.VariableValue, Time.Year, Time.Month, Time.Day, Time.Interval FROM ReportVariableData dt INNER JOIN Time ON Time.timeIndex = dt.TimeIndex WHERE  dt.ReportVariableDataDictionaryIndex=7 AND Time.EnvironmentPeriodIndex = 1Return Code:\n100\n[openstudio.energyplus.SqlFile] <Debug> Time series found\n[openstudio.energyplus.SqlFile] <Debug> Making time series for envPeriod = 'RUN PERIOD 1', reportingFrequency = 'Hourly', timeSeriesName = 'Zone Air Temperature', keyValue = 'ESTE'\n[openstudio.energyplus.SqlFile] <Debug> RUN PERIOD 1\n[openstudio.energyplus.SqlFile] <Debug> Zone Air Temperature\n[openstudio.energyplus.SqlFile] <Debug> SQL Query:\nSELECT dt.VariableValue, Time.Year, Time.Month, Time.Day, Time.Interval FROM ReportVariableData dt INNER JOIN Time ON Time.timeIndex = dt.TimeIndex WHERE  dt.ReportVariableDataDictionaryIndex=10 AND Time.EnvironmentPeriodIndex = 1Return Code:\n100\n[openstudio.energyplus.SqlFile] <Debug> Time series found\n[openstudio.energyplus.SqlFile] <Debug> Making time series for envPeriod = 'RUN PERIOD 1', reportingFrequency = 'Hourly', timeSeriesName = 'Zone Air Temperature', keyValue = 'OESTE'\n[openstudio.energyplus.SqlFile] <Debug> RUN PERIOD 1\n[openstudio.energyplus.SqlFile] <Debug> Zone Air Temperature\n[openstudio.energyplus.SqlFile] <Debug> SQL Query:\nSELECT dt.VariableValue, Time.Year, Time.Month, Time.Day, Time.Interval FROM ReportVariableData dt INNER JOIN Time ON Time.timeIndex = dt.TimeIndex WHERE  dt.ReportVariableDataDictionaryIndex=146 AND Time.EnvironmentPeriodIndex = 1Return Code:\n100\n[openstudio.energyplus.SqlFile] <Debug> Time series found\n[openstudio.energyplus.SqlFile] <Debug> Making time series for envPeriod = 'RUN PERIOD 1', reportingFrequency = 'Hourly', timeSeriesName = 'Zone Air Relative Humidity', keyValue = 'ESTE'\n[openstudio.energyplus.SqlFile] <Debug> RUN PERIOD 1\n[openstudio.energyplus.SqlFile] <Debug> Zone Air Relative Humidity\n[openstudio.energyplus.SqlFile] <Debug> SQL Query:\nSELECT dt.VariableValue, Time.Year, Time.Month, Time.Day, Time.Interval FROM ReportVariableData dt INNER JOIN Time ON Time.timeIndex = dt.TimeIndex WHERE  dt.ReportVariableDataDictionaryIndex=11 AND Time.EnvironmentPeriodIndex = 1Return Code:\n100\n[openstudio.energyplus.SqlFile] <Debug> Time series found\n[openstudio.energyplus.SqlFile] <Debug> Making time series for envPeriod = 'RUN PERIOD 1', reportingFrequency = 'Hourly', timeSeriesName = 'Zone Air Relative Humidity', keyValue = 'OESTE'\n[openstudio.energyplus.SqlFile] <Debug> RUN PERIOD 1\n[openstudio.energyplus.SqlFile] <Debug> Zone Air Relative Humidity\n[openstudio.energyplus.SqlFile] <Debug> SQL Query:\nSELECT dt.VariableValue, Time.Year, Time.Month, Time.Day, Time.Interval FROM ReportVariableData dt INNER JOIN Time ON Time.timeIndex = dt.TimeIndex WHERE  dt.ReportVariableDataDictionaryIndex=147 AND Time.EnvironmentPeriodIndex = 1Return Code:\n100\n[openstudio.energyplus.SqlFile] <Debug> Time series found\n[openstudio.WorkflowStepResult] <Debug> WorkflowStepResult::warnings is deprecated, use stepWarnings instead\n[openstudio.WorkflowStepResult] <Debug> WorkflowStepResult::warnings is deprecated, use stepWarnings instead\n[openstudio.WorkflowStepResult] <Debug> WorkflowStepResult::warnings is deprecated, use stepWarnings instead\n[openstudio.WorkflowStepResult] <Debug> WorkflowStepResult::warnings is deprecated, use stepWarnings instead\n[openstudio.measure.OSRunner] <Info> Generated report with 22 sections to ./report.html.\n",
            "step_errors" : [],
            "step_files" : 
            [
               "/tmp/osmodel-234a-f2c7-9a1c-475d-1773752768-0/resources/run/004_OpenStudioResults/report.html"
            ],
            "step_final_condition" : "Generated report with 22 sections to ./report.html.",
            "step_info" : [],
            "step_initial_condition" : "Gathering data from EnergyPlus SQL file and OSM model. Will report in IP Units",
            "step_result" : "Success",
            "step_values" : 
            [
               {
                  "name" : "units",
                  "value" : "IP"
               },
               {
                  "name" : "building_summary_section",
                  "value" : true
               },
               {
                  "name" : "annual_overview_section",
                  "value" : true
               },
               {
                  "name" : "monthly_overview_section",
                  "value" : true
               },
               {
                  "name" : "utility_bills_rates_section",
                  "value" : true
               },
               {
                  "name" : "envelope_section_section",
                  "value" : true
               },
               {
                  "name" : "space_type_breakdown_section",
                  "value" : true
               },
               {
                  "name" : "space_type_details_section",
                  "value" : true
               },
               {
                  "name" : "interior_lighting_section",
                  "value" : true
               },
               {
                  "name" : "plug_loads_section",
                  "value" : true
               },
               {
                  "name" : "exterior_light_section",
                  "value" : true
               },
               {
                  "name" : "water_use_section",
                  "value" : true
               },
               {
                  "name" : "hvac_load_profile",
                  "value" : true
               },
               {
                  "name" : "zone_condition_section",
                  "value" : true
               },
               {
                  "name" : "zone_summary_section",
                  "value" : true
               },
               {
                  "name" : "zone_equipment_detail_section",
                  "value" : true
               },
               {
                  "name" : "air_loops_detail_section",
                  "value" : true
               },
               {
                  "name" : "plant_loops_detail_section",
                  "value" : true
               },
               {
                  "name" : "outdoor_air_section",
                  "value" : true
               },
               {
                  "name" : "cost_summary_section",
                  "value" : true
               },
               {
                  "name" : "source_energy_section",
                  "value" : true
               },
               {
                  "name" : "schedules_overview_section",
                  "value" : true
               },
               {
                  "name" : "measure_warning_section",
                  "value" : true
               },
               {
                  "name" : "reg_monthly_details",
                  "value" : false
               },
               {
                  "name" : "energyplus_reports",
                  "value" : false
               },
               {
                  "name" : "html_dependencies",
                  "value" : "Remote"
               },
               {
                  "name" : "standards_gem_version",
                  "value" : "0.8.5"
               },
               {
                  "display_name" : "Building 1",
                  "name" : "building_name",
                  "value" : "n/a"
               },
               {
                  "name" : "total_site_energy",
                  "units" : "kBtu",
                  "value" : 0.0
               },
               {
                  "name" : "net_site_energy",
                  "units" : "kBtu",
                  "value" : 0.0
               },
               {
                  "name" : "total_building_area",
                  "units" : "ft^2",
                  "value" : 387.50077500154998
               },
               {
                  "name" : "total_site_eui",
                  "units" : "kBtu/ft^2",
                  "value" : 0.0
               },
               {
                  "name" : "eui",
                  "units" : "kBtu/ft^2",
                  "value" : 0.0
               },
               {
                  "name" : "conditioned_building_area",
                  "units" : "ft^2",
                  "value" : 0.0
               },
               {
                  "name" : "conditioned_site_eui",
                  "units" : "kBtu/ft^2",
                  "value" : 0.0
               },
               {
                  "name" : "unmet_hours_during_heating",
                  "units" : "hr",
                  "value" : 0.0
               },
               {
                  "name" : "unmet_hours_during_cooling",
                  "units" : "hr",
                  "value" : 0.0
               },
               {
                  "name" : "unmet_hours_during_occupied_heating",
                  "units" : "hr",
                  "value" : 0.0
               },
               {
                  "name" : "unmet_hours_during_occupied_cooling",
                  "units" : "hr",
                  "value" : 0.0
               },
               {
                  "name" : "unmet_hours_tolerance_heating",
                  "units" : "R",
                  "value" : 0.35999999999999999
               },
               {
                  "name" : "unmet_hours_tolerance_cooling",
                  "units" : "R",
                  "value" : 0.35999999999999999
               },
               {
                  "name" : "end_use_heating",
                  "units" : "kBtu",
                  "value" : 0.0
               },
               {
                  "name" : "end_use_cooling",
                  "units" : "kBtu",
                  "value" : 0.0
               },
               {
                  "name" : "end_use_interior_lighting",
                  "units" : "kBtu",
                  "value" : 0.0
               },
               {
                  "name" : "end_use_exterior_lighting",
                  "units" : "kBtu",
                  "value" : 0.0
               },
               {
                  "name" : "end_use_interior_equipment",
                  "units" : "kBtu",
                  "value" : 0.0
               },
               {
                  "name" : "end_use_exterior_equipment",
                  "units" : "kBtu",
                  "value" : 0.0
               },
               {
                  "name" : "end_use_fans",
                  "units" : "kBtu",
                  "value" : 0.0
               },
               {
                  "name" : "end_use_pumps",
                  "units" : "kBtu",
                  "value" : 0.0
               },
               {
                  "name" : "end_use_heat_rejection",
                  "units" : "kBtu",
                  "value" : 0.0
               },
               {
                  "name" : "end_use_humidification",
                  "units" : "kBtu",
                  "value" : 0.0
               },
               {
                  "name" : "end_use_heat_recovery",
                  "units" : "kBtu",
                  "value" : 0.0
               },
               {
                  "name" : "end_use_water_systems",
                  "units" : "kBtu",
                  "value" : 0.0
               },
               {
                  "name" : "end_use_refrigeration",
                  "units" : "kBtu",
                  "value" : 0.0
               },
               {
                  "name" : "end_use_generators",
                  "units" : "kBtu",
                  "value" : 0.0
               },
               {
                  "name" : "fuel_electricity",
                  "units" : "kBtu",
                  "value" : 0.0
               },
               {
                  "name" : "fuel_natural_gas",
                  "units" : "kBtu",
                  "value" : 0.0
               },
               {
                  "name" : "fuel_gasoline",
                  "units" : "kBtu",
                  "value" : 0.0
               },
               {
                  "name" : "fuel_diesel",
                  "units" : "kBtu",
                  "value" : 0.0
               },
               {
                  "name" : "fuel_coal",
                  "units" : "kBtu",
                  "value" : 0.0
               },
               {
                  "name" : "fuel_fuel_oil_no_1",
                  "units" : "kBtu",
                  "value" : 0.0
               },
               {
                  "name" : "fuel_fuel_oil_no_2",
                  "units" : "kBtu",
                  "value" : 0.0
               },
               {
                  "name" : "fuel_propane",
                  "units" : "kBtu",
                  "value" : 0.0
               },
               {
                  "name" : "fuel_other_fuel_1",
                  "units" : "kBtu",
                  "value" : 0.0
               },
               {
                  "name" : "fuel_other_fuel_2",
                  "units" : "kBtu",
                  "value" : 0.0
               },
               {
                  "name" : "fuel_district_cooling",
                  "units" : "kBtu",
                  "value" : 0.0
               },
               {
                  "name" : "fuel_district_heating_water",
                  "units" : "kBtu",
                  "value" : 0.0
               },
               {
                  "name" : "fuel_district_heating_steam",
                  "units" : "kBtu",
                  "value" : 0.0
               },
               {
                  "name" : "end_use_electricity_heating",
                  "units" : "kWh",
                  "value" : 0.0
               },
               {
                  "name" : "end_use_electricity_cooling",
                  "units" : "kWh",
                  "value" : 0.0
               },
               {
                  "name" : "end_use_electricity_interior_lighting",
                  "units" : "kWh",
                  "value" : 0.0
               },
               {
                  "name" : "end_use_electricity_exterior_lighting",
                  "units" : "kWh",
                  "value" : 0.0
               },
               {
                  "name" : "end_use_electricity_interior_equipment",
                  "units" : "kWh",
                  "value" : 0.0
               },
               {
                  "name" : "end_use_electricity_exterior_equipment",
                  "units" : "kWh",
                  "value" : 0.0
               },
               {
                  "name" : "end_use_electricity_fans",
                  "units" : "kWh",
                  "value" : 0.0
               },
               {
                  "name" : "end_use_electricity_pumps",
                  "units" : "kWh",
                  "value" : 0.0
               },
               {
                  "name" : "end_use_electricity_heat_rejection",
                  "units" : "kWh",
                  "value" : 0.0
               },
               {
                  "name" : "end_use_electricity_humidification",
                  "units" : "kWh",
                  "value" : 0.0
               },
               {
                  "name" : "end_use_electricity_heat_recovery",
                  "units" : "kWh",
                  "value" : 0.0
               },
               {
                  "name" : "end_use_electricity_water_systems",
                  "units" : "kWh",
                  "value" : 0.0
               },
               {
                  "name" : "end_use_electricity_refrigeration",
                  "units" : "kWh",
                  "value" : 0.0
               },
               {
                  "name" : "end_use_electricity_generators",
                  "units" : "kWh",
                  "value" : 0.0
               },
               {
                  "name" : "end_use_natural_gas_heating",
                  "units" : "therm",
                  "value" : 0.0
               },
               {
                  "name" : "end_use_natural_gas_cooling",
                  "units" : "therm",
                  "value" : 0.0
               },
               {
                  "name" : "end_use_natural_gas_interior_lighting",
                  "units" : "therm",
                  "value" : 0.0
               },
               {
                  "name" : "end_use_natural_gas_exterior_lighting",
                  "units" : "therm",
                  "value" : 0.0
               },
               {
                  "name" : "end_use_natural_gas_interior_equipment",
                  "units" : "therm",
                  "value" : 0.0
               },
               {
                  "name" : "end_use_natural_gas_exterior_equipment",
                  "units" : "therm",
                  "value" : 0.0
               },
               {
                  "name" : "end_use_natural_gas_fans",
                  "units" : "therm",
                  "value" : 0.0
               },
               {
                  "name" : "end_use_natural_gas_pumps",
                  "units" : "therm",
                  "value" : 0.0
               },
               {
                  "name" : "end_use_natural_gas_heat_rejection",
                  "units" : "therm",
                  "value" : 0.0
               },
               {
                  "name" : "end_use_natural_gas_humidification",
                  "units" : "therm",
                  "value" : 0.0
               },
               {
                  "name" : "end_use_natural_gas_heat_recovery",
                  "units" : "therm",
                  "value" : 0.0
               },
               {
                  "name" : "end_use_natural_gas_water_systems",
                  "units" : "therm",
                  "value" : 0.0
               },
               {
                  "name" : "end_use_natural_gas_refrigeration",
                  "units" : "therm",
                  "value" : 0.0
               },
               {
                  "name" : "end_use_natural_gas_generators",
                  "units" : "therm",
                  "value" : 0.0
               },
               {
                  "name" : "electricity_heating_ip",
                  "units" : "kWh",
                  "value" : 0.0
               },
               {
                  "name" : "electricity_cooling_ip",
                  "units" : "kWh",
                  "value" : 0.0
               },
               {
                  "name" : "electricity_interior_lighting_ip",
                  "units" : "kWh",
                  "value" : 0.0
               },
               {
                  "name" : "electricity_exterior_lighting_ip",
                  "units" : "kWh",
                  "value" : 0.0
               },
               {
                  "name" : "electricity_interior_equipment_ip",
                  "units" : "kWh",
                  "value" : 0.0
               },
               {
                  "name" : "electricity_exterior_equipment_ip",
                  "units" : "kWh",
                  "value" : 0.0
               },
               {
                  "name" : "electricity_fans_ip",
                  "units" : "kWh",
                  "value" : 0.0
               },
               {
                  "name" : "electricity_pumps_ip",
                  "units" : "kWh",
                  "value" : 0.0
               },
               {
                  "name" : "electricity_heat_rejection_ip",
                  "units" : "kWh",
                  "value" : 0.0
               },
               {
                  "name" : "electricity_humidification_ip",
                  "units" : "kWh",
                  "value" : 0.0
               },
               {
                  "name" : "electricity_heat_recovery_ip",
                  "units" : "kWh",
                  "value" : 0.0
               },
               {
                  "name" : "electricity_water_systems_ip",
                  "units" : "kWh",
                  "value" : 0.0
               },
               {
                  "name" : "electricity_refrigeration_ip",
                  "units" : "kWh",
                  "value" : 0.0
               },
               {
                  "name" : "electricity_generators_ip",
                  "units" : "kWh",
                  "value" : 0.0
               },
               {
                  "name" : "electricity_ip",
                  "units" : "kWh",
                  "value" : 0.0
               },
               {
                  "name" : "natural_gas_heating_ip",
                  "units" : "MBtu",
                  "value" : 0.0
               },
               {
                  "name" : "natural_gas_cooling_ip",
                  "units" : "MBtu",
                  "value" : 0.0
               },
               {
                  "name" : "natural_gas_interior_lighting_ip",
                  "units" : "MBtu",
                  "value" : 0.0
               },
               {
                  "name" : "natural_gas_exterior_lighting_ip",
                  "units" : "MBtu",
                  "value" : 0.0
               },
               {
                  "name" : "natural_gas_interior_equipment_ip",
                  "units" : "MBtu",
                  "value" : 0.0
               },
               {
                  "name" : "natural_gas_exterior_equipment_ip",
                  "units" : "MBtu",
                  "value" : 0.0
               },
               {
                  "name" : "natural_gas_fans_ip",
                  "units" : "MBtu",
                  "value" : 0.0
               },
               {
                  "name" : "natural_gas_pumps_ip",
                  "units" : "MBtu",
                  "value" : 0.0
               },
               {
                  "name" : "natural_gas_heat_rejection_ip",
                  "units" : "MBtu",
                  "value" : 0.0
               },
               {
                  "name" : "natural_gas_humidification_ip",
                  "units" : "MBtu",
                  "value" : 0.0
               },
               {
                  "name" : "natural_gas_heat_recovery_ip",
                  "units" : "MBtu",
                  "value" : 0.0
               },
               {
                  "name" : "natural_gas_water_systems_ip",
                  "units" : "MBtu",
                  "value" : 0.0
               },
               {
                  "name" : "natural_gas_refrigeration_ip",
                  "units" : "MBtu",
                  "value" : 0.0
               },
               {
                  "name" : "natural_gas_generators_ip",
                  "units" : "MBtu",
                  "value" : 0.0
               },
               {
                  "name" : "natural_gas_ip",
                  "units" : "MBtu",
                  "value" : 0.0
               },
               {
                  "name" : "gasoline_heating_ip",
                  "units" : "MBtu",
                  "value" : 0.0
               },
               {
                  "name" : "gasoline_cooling_ip",
                  "units" : "MBtu",
                  "value" : 0.0
               },
               {
                  "name" : "gasoline_interior_lighting_ip",
                  "units" : "MBtu",
                  "value" : 0.0
               },
               {
                  "name" : "gasoline_exterior_lighting_ip",
                  "units" : "MBtu",
                  "value" : 0.0
               },
               {
                  "name" : "gasoline_interior_equipment_ip",
                  "units" : "MBtu",
                  "value" : 0.0
               },
               {
                  "name" : "gasoline_exterior_equipment_ip",
                  "units" : "MBtu",
                  "value" : 0.0
               },
               {
                  "name" : "gasoline_fans_ip",
                  "units" : "MBtu",
                  "value" : 0.0
               },
               {
                  "name" : "gasoline_pumps_ip",
                  "units" : "MBtu",
                  "value" : 0.0
               },
               {
                  "name" : "gasoline_heat_rejection_ip",
                  "units" : "MBtu",
                  "value" : 0.0
               },
               {
                  "name" : "gasoline_humidification_ip",
                  "units" : "MBtu",
                  "value" : 0.0
               },
               {
                  "name" : "gasoline_heat_recovery_ip",
                  "units" : "MBtu",
                  "value" : 0.0
               },
               {
                  "name" : "gasoline_water_systems_ip",
                  "units" : "MBtu",
                  "value" : 0.0
               },
               {
                  "name" : "gasoline_refrigeration_ip",
                  "units" : "MBtu",
                  "value" : 0.0
               },
               {
                  "name" : "gasoline_generators_ip",
                  "units" : "MBtu",
                  "value" : 0.0
               },
               {
                  "name" : "gasoline_ip",
                  "units" : "MBtu",
                  "value" : 0.0
               },
               {
                  "name" : "diesel_heating_ip",
                  "units" : "MBtu",
                  "value" : 0.0
               },
               {
                  "name" : "diesel_cooling_ip",
                  "units" : "MBtu",
                  "value" : 0.0
               },
               {
                  "name" : "diesel_interior_lighting_ip",
                  "units" : "MBtu",
                  "value" : 0.0
               },
               {
                  "name" : "diesel_exterior_lighting_ip",
                  "units" : "MBtu",
                  "value" : 0.0
               },
               {
                  "name" : "diesel_interior_equipment_ip",
                  "units" : "MBtu",
                  "value" : 0.0
               },
               {
                  "name" : "diesel_exterior_equipment_ip",
                  "units" : "MBtu",
                  "value" : 0.0
               },
               {
                  "name" : "diesel_fans_ip",
                  "units" : "MBtu",
                  "value" : 0.0
               },
               {
                  "name" : "diesel_pumps_ip",
                  "units" : "MBtu",
                  "value" : 0.0
               },
               {
                  "name" : "diesel_heat_rejection_ip",
                  "units" : "MBtu",
                  "value" : 0.0
               },
               {
                  "name" : "diesel_humidification_ip",
                  "units" : "MBtu",
                  "value" : 0.0
               },
               {
                  "name" : "diesel_heat_recovery_ip",
                  "units" : "MBtu",
                  "value" : 0.0
               },
               {
                  "name" : "diesel_water_systems_ip",
                  "units" : "MBtu",
                  "value" : 0.0
               },
               {
                  "name" : "diesel_refrigeration_ip",
                  "units" : "MBtu",
                  "value" : 0.0
               },
               {
                  "name" : "diesel_generators_ip",
                  "units" : "MBtu",
                  "value" : 0.0
               },
               {
                  "name" : "diesel_ip",
                  "units" : "MBtu",
                  "value" : 0.0
               },
               {
                  "name" : "coal_heating_ip",
                  "units" : "MBtu",
                  "value" : 0.0
               },
               {
                  "name" : "coal_cooling_ip",
                  "units" : "MBtu",
                  "value" : 0.0
               },
               {
                  "name" : "coal_interior_lighting_ip",
                  "units" : "MBtu",
                  "value" : 0.0
               },
               {
                  "name" : "coal_exterior_lighting_ip",
                  "units" : "MBtu",
                  "value" : 0.0
               },
               {
                  "name" : "coal_interior_equipment_ip",
                  "units" : "MBtu",
                  "value" : 0.0
               },
               {
                  "name" : "coal_exterior_equipment_ip",
                  "units" : "MBtu",
                  "value" : 0.0
               },
               {
                  "name" : "coal_fans_ip",
                  "units" : "MBtu",
                  "value" : 0.0
               },
               {
                  "name" : "coal_pumps_ip",
                  "units" : "MBtu",
                  "value" : 0.0
               },
               {
                  "name" : "coal_heat_rejection_ip",
                  "units" : "MBtu",
                  "value" : 0.0
               },
               {
                  "name" : "coal_humidification_ip",
                  "units" : "MBtu",
                  "value" : 0.0
               },
               {
                  "name" : "coal_heat_recovery_ip",
                  "units" : "MBtu",
                  "value" : 0.0
               },
               {
                  "name" : "coal_water_systems_ip",
                  "units" : "MBtu",
                  "value" : 0.0
               },
               {
                  "name" : "coal_refrigeration_ip",
                  "units" : "MBtu",
                  "value" : 0.0
               },
               {
                  "name" : "coal_generators_ip",
                  "units" : "MBtu",
                  "value" : 0.0
               },
               {
                  "name" : "coal_ip",
                  "units" : "MBtu",
                  "value" : 0.0
               },
               {
                  "name" : "fuel_oil_no_1_heating_ip",
                  "units" : "MBtu",
                  "value" : 0.0
               },
               {
                  "name" : "fuel_oil_no_1_cooling_ip",
                  "units" : "MBtu",
                  "value" : 0.0
               },
               {
                  "name" : "fuel_oil_no_1_interior_lighting_ip",
                  "units" : "MBtu",
                  "value" : 0.0
               },
               {
                  "name" : "fuel_oil_no_1_exterior_lighting_ip",
                  "units" : "MBtu",
                  "value" : 0.0
               },
               {
                  "name" : "fuel_oil_no_1_interior_equipment_ip",
                  "units" : "MBtu",
                  "value" : 0.0
               },
               {
                  "name" : "fuel_oil_no_1_exterior_equipment_ip",
                  "units" : "MBtu",
                  "value" : 0.0
               },
               {
                  "name" : "fuel_oil_no_1_fans_ip",
                  "units" : "MBtu",
                  "value" : 0.0
               },
               {
                  "name" : "fuel_oil_no_1_pumps_ip",
                  "units" : "MBtu",
                  "value" : 0.0
               },
               {
                  "name" : "fuel_oil_no_1_heat_rejection_ip",
                  "units" : "MBtu",
                  "value" : 0.0
               },
               {
                  "name" : "fuel_oil_no_1_humidification_ip",
                  "units" : "MBtu",
                  "value" : 0.0
               },
               {
                  "name" : "fuel_oil_no_1_heat_recovery_ip",
                  "units" : "MBtu",
                  "value" : 0.0
               },
               {
                  "name" : "fuel_oil_no_1_water_systems_ip",
                  "units" : "MBtu",
                  "value" : 0.0
               },
               {
                  "name" : "fuel_oil_no_1_refrigeration_ip",
                  "units" : "MBtu",
                  "value" : 0.0
               },
               {
                  "name" : "fuel_oil_no_1_generators_ip",
                  "units" : "MBtu",
                  "value" : 0.0
               },
               {
                  "name" : "fuel_oil_no_1_ip",
                  "units" : "MBtu",
                  "value" : 0.0
               },
               {
                  "name" : "fuel_oil_no_2_heating_ip",
                  "units" : "MBtu",
                  "value" : 0.0
               },
               {
                  "name" : "fuel_oil_no_2_cooling_ip",
                  "units" : "MBtu",
                  "value" : 0.0
               },
               {
                  "name" : "fuel_oil_no_2_interior_lighting_ip",
                  "units" : "MBtu",
                  "value" : 0.0
               },
               {
                  "name" : "fuel_oil_no_2_exterior_lighting_ip",
                  "units" : "MBtu",
                  "value" : 0.0
               },
               {
                  "name" : "fuel_oil_no_2_interior_equipment_ip",
                  "units" : "MBtu",
                  "value" : 0.0
               },
               {
                  "name" : "fuel_oil_no_2_exterior_equipment_ip",
                  "units" : "MBtu",
                  "value" : 0.0
               },
               {
                  "name" : "fuel_oil_no_2_fans_ip",
                  "units" : "MBtu",
                  "value" : 0.0
               },
               {
                  "name" : "fuel_oil_no_2_pumps_ip",
                  "units" : "MBtu",
                  "value" : 0.0
               },
               {
                  "name" : "fuel_oil_no_2_heat_rejection_ip",
                  "units" : "MBtu",
                  "value" : 0.0
               },
               {
                  "name" : "fuel_oil_no_2_humidification_ip",
                  "units" : "MBtu",
                  "value" : 0.0
               },
               {
                  "name" : "fuel_oil_no_2_heat_recovery_ip",
                  "units" : "MBtu",
                  "value" : 0.0
               },
               {
                  "name" : "fuel_oil_no_2_water_systems_ip",
                  "units" : "MBtu",
                  "value" : 0.0
               },
               {
                  "name" : "fuel_oil_no_2_refrigeration_ip",
                  "units" : "MBtu",
                  "value" : 0.0
               },
               {
                  "name" : "fuel_oil_no_2_generators_ip",
                  "units" : "MBtu",
                  "value" : 0.0
               },
               {
                  "name" : "fuel_oil_no_2_ip",
                  "units" : "MBtu",
                  "value" : 0.0
               },
               {
                  "name" : "propane_heating_ip",
                  "units" : "MBtu",
                  "value" : 0.0
               },
               {
                  "name" : "propane_cooling_ip",
                  "units" : "MBtu",
                  "value" : 0.0
               },
               {
                  "name" : "propane_interior_lighting_ip",
                  "units" : "MBtu",
                  "value" : 0.0
               },
               {
                  "name" : "propane_exterior_lighting_ip",
                  "units" : "MBtu",
                  "value" : 0.0
               },
               {
                  "name" : "propane_interior_equipment_ip",
                  "units" : "MBtu",
                  "value" : 0.0
               },
               {
                  "name" : "propane_exterior_equipment_ip",
[...]
               {
                  "name" : "other_fuel_1_heat_rejection_ip",
                  "units" : "MBtu",
                  "value" : 0.0
               },
               {
                  "name" : "other_fuel_1_humidification_ip",
                  "units" : "MBtu",
                  "value" : 0.0
               },
               {
                  "name" : "other_fuel_1_heat_recovery_ip",
                  "units" : "MBtu",
                  "value" : 0.0
               },
               {
                  "name" : "other_fuel_1_water_systems_ip",
                  "units" : "MBtu",
                  "value" : 0.0
               },
               {
                  "name" : "other_fuel_1_refrigeration_ip",
                  "units" : "MBtu",
                  "value" : 0.0
               },
               {
                  "name" : "other_fuel_1_generators_ip",
                  "units" : "MBtu",
                  "value" : 0.0
               },
               {
                  "name" : "other_fuel_1_ip",
                  "units" : "MBtu",
                  "value" : 0.0
               },
               {
                  "name" : "other_fuel_2_heating_ip",
                  "units" : "MBtu",
                  "value" : 0.0
               },
               {
                  "name" : "other_fuel_2_cooling_ip",
                  "units" : "MBtu",
                  "value" : 0.0
               },
               {
                  "name" : "other_fuel_2_interior_lighting_ip",
                  "units" : "MBtu",
                  "value" : 0.0
               },
               {
                  "name" : "other_fuel_2_exterior_lighting_ip",
                  "units" : "MBtu",
                  "value" : 0.0
               },
               {
                  "name" : "other_fuel_2_interior_equipment_ip",
                  "units" : "MBtu",
                  "value" : 0.0
               },
               {
                  "name" : "other_fuel_2_exterior_equipment_ip",
                  "units" : "MBtu",
                  "value" : 0.0
               },
               {
                  "name" : "other_fuel_2_fans_ip",
                  "units" : "MBtu",
                  "value" : 0.0
               },
               {
                  "name" : "other_fuel_2_pumps_ip",
                  "units" : "MBtu",
                  "value" : 0.0
               },
               {
                  "name" : "other_fuel_2_heat_rejection_ip",
                  "units" : "MBtu",
                  "value" : 0.0
               },
               {
                  "name" : "other_fuel_2_humidification_ip",
                  "units" : "MBtu",
                  "value" : 0.0
               },
               {
                  "name" : "other_fuel_2_heat_recovery_ip",
                  "units" : "MBtu",
                  "value" : 0.0
               },
               {
                  "name" : "other_fuel_2_water_systems_ip",
                  "units" : "MBtu",
                  "value" : 0.0
               },
               {
                  "name" : "other_fuel_2_refrigeration_ip",
                  "units" : "MBtu",
                  "value" : 0.0
               },
               {
                  "name" : "other_fuel_2_generators_ip",
                  "units" : "MBtu",
                  "value" : 0.0
               },
               {
                  "name" : "other_fuel_2_ip",
                  "units" : "MBtu",
                  "value" : 0.0
               },
               {
                  "name" : "district_cooling_heating_ip",
                  "units" : "MBtu",
                  "value" : 0.0
               },
               {
                  "name" : "district_cooling_cooling_ip",
                  "units" : "MBtu",
                  "value" : 0.0
               },
               {
                  "name" : "district_cooling_interior_lighting_ip",
                  "units" : "MBtu",
                  "value" : 0.0
               },
               {
                  "name" : "district_cooling_exterior_lighting_ip",
                  "units" : "MBtu",
                  "value" : 0.0
               },
               {
                  "name" : "district_cooling_interior_equipment_ip",
                  "units" : "MBtu",
                  "value" : 0.0
               },
               {
                  "name" : "district_cooling_exterior_equipment_ip",
                  "units" : "MBtu",
                  "value" : 0.0
               },
               {
                  "name" : "district_cooling_fans_ip",
                  "units" : "MBtu",
                  "value" : 0.0
               },
               {
                  "name" : "district_cooling_pumps_ip",
                  "units" : "MBtu",
                  "value" : 0.0
               },
               {
                  "name" : "district_cooling_heat_rejection_ip",
                  "units" : "MBtu",
                  "value" : 0.0
               },
               {
                  "name" : "district_cooling_humidification_ip",
                  "units" : "MBtu",
                  "value" : 0.0
               },
               {
                  "name" : "district_cooling_heat_recovery_ip",
                  "units" : "MBtu",
                  "value" : 0.0
               },
               {
                  "name" : "district_cooling_water_systems_ip",
                  "units" : "MBtu",
                  "value" : 0.0
               },
               {
                  "name" : "district_cooling_refrigeration_ip",
                  "units" : "MBtu",
                  "value" : 0.0
               },
               {
                  "name" : "district_cooling_generators_ip",
                  "units" : "MBtu",
                  "value" : 0.0
               },
               {
                  "name" : "district_cooling_ip",
                  "units" : "MBtu",
                  "value" : 0.0
               },
               {
                  "name" : "district_heating_water_heating_ip",
                  "units" : "MBtu",
                  "value" : 0.0
               },
               {
                  "name" : "district_heating_water_cooling_ip",
                  "units" : "MBtu",
                  "value" : 0.0
               },
               {
                  "name" : "district_heating_water_interior_lighting_ip",
                  "units" : "MBtu",
                  "value" : 0.0
               },
               {
                  "name" : "district_heating_water_exterior_lighting_ip",
                  "units" : "MBtu",
                  "value" : 0.0
               },
               {
                  "name" : "district_heating_water_interior_equipment_ip",
                  "units" : "MBtu",
                  "value" : 0.0
               },
               {
                  "name" : "district_heating_water_exterior_equipment_ip",
                  "units" : "MBtu",
                  "value" : 0.0
               },
               {
                  "name" : "district_heating_water_fans_ip",
                  "units" : "MBtu",
                  "value" : 0.0
               },
               {
                  "name" : "district_heating_water_pumps_ip",
                  "units" : "MBtu",
                  "value" : 0.0
               },
               {
                  "name" : "district_heating_water_heat_rejection_ip",
                  "units" : "MBtu",
                  "value" : 0.0
               },
               {
                  "name" : "district_heating_water_humidification_ip",
                  "units" : "MBtu",
                  "value" : 0.0
               },
               {
                  "name" : "district_heating_water_heat_recovery_ip",
                  "units" : "MBtu",
                  "value" : 0.0
               },
               {
                  "name" : "district_heating_water_water_systems_ip",
                  "units" : "MBtu",
                  "value" : 0.0
               },
               {
                  "name" : "district_heating_water_refrigeration_ip",
                  "units" : "MBtu",
                  "value" : 0.0
               },
               {
                  "name" : "district_heating_water_generators_ip",
                  "units" : "MBtu",
                  "value" : 0.0
               },
               {
                  "name" : "district_heating_water_ip",
                  "units" : "MBtu",
                  "value" : 0.0
               },
               {
                  "name" : "district_heating_steam_heating_ip",
                  "units" : "MBtu",
                  "value" : 0.0
               },
               {
                  "name" : "district_heating_steam_cooling_ip",
                  "units" : "MBtu",
                  "value" : 0.0
               },
               {
                  "name" : "district_heating_steam_interior_lighting_ip",
                  "units" : "MBtu",
                  "value" : 0.0
               },
               {
                  "name" : "district_heating_steam_exterior_lighting_ip",
                  "units" : "MBtu",
                  "value" : 0.0
               },
               {
                  "name" : "district_heating_steam_interior_equipment_ip",
                  "units" : "MBtu",
                  "value" : 0.0
               },
               {
                  "name" : "district_heating_steam_exterior_equipment_ip",
                  "units" : "MBtu",
                  "value" : 0.0
               },
               {
                  "name" : "district_heating_steam_fans_ip",
                  "units" : "MBtu",
                  "value" : 0.0
               },
               {
                  "name" : "district_heating_steam_pumps_ip",
                  "units" : "MBtu",
                  "value" : 0.0
               },
               {
                  "name" : "district_heating_steam_heat_rejection_ip",
                  "units" : "MBtu",
                  "value" : 0.0
               },
               {
                  "name" : "district_heating_steam_humidification_ip",
                  "units" : "MBtu",
                  "value" : 0.0
               },
               {
                  "name" : "district_heating_steam_heat_recovery_ip",
                  "units" : "MBtu",
                  "value" : 0.0
               },
               {
                  "name" : "district_heating_steam_water_systems_ip",
                  "units" : "MBtu",
                  "value" : 0.0
               },
               {
                  "name" : "district_heating_steam_refrigeration_ip",
                  "units" : "MBtu",
                  "value" : 0.0
               },
               {
                  "name" : "district_heating_steam_generators_ip",
                  "units" : "MBtu",
                  "value" : 0.0
               },
               {
                  "name" : "district_heating_steam_ip",
                  "units" : "MBtu",
                  "value" : 0.0
               },
               {
                  "name" : "cad_15_cma_0_p_7",
                  "units" : "ft^2",
                  "value" : 775.00155000309996
               },
               {
                  "name" : "muro_ext",
                  "units" : "ft^2",
                  "value" : 775.00155000309996
               },
               {
                  "name" : "gross_window_wall_ratio",
                  "units" : "%",
                  "value" : 0.0
               },
               {
                  "name" : "gross_window_wall_ratio_conditioned",
                  "units" : "%",
                  "value" : 0.0
               },
               {
                  "name" : "skylight_roof_ratio",
                  "units" : "%",
                  "value" : 0.0
               },
               {
                  "name" : "space_type_no_space_type",
                  "units" : "ft^2",
                  "value" : 387.50077500154998
               },
               {
                  "name" : "zone_max_hours_over_70_rh",
                  "units" : "hr",
                  "value" : 0
               },
               {
                  "name" : "zone_max_hours_over_55_rh",
                  "units" : "hr",
                  "value" : 18.0
               },
               {
                  "name" : "num_zones_x_hours_over_70",
                  "units" : "zones",
                  "value" : 0
               },
               {
                  "name" : "num_zones_x_hours_over_55",
                  "units" : "zones",
                  "value" : 2
               },
               {
                  "name" : "inflation_approach",
                  "value" : "Constant Dollar"
               },
               {
                  "name" : "analysis_length",
                  "units" : "yrs",
                  "value" : 25
               },
               {
                  "name" : "number_of_measures_with_warnings",
                  "value" : 0
               },
               {
                  "name" : "number_warnings",
                  "value" : 0
               },
               {
                  "name" : "annual_peak_electric_demand",
                  "units" : "kW",
                  "value" : 0.0
               },
               {
                  "name" : "first_year_capital_cost",
                  "units" : "$",
                  "value" : 0.0
               },
               {
                  "name" : "annual_utility_cost",
                  "units" : "$",
                  "value" : 0.0
               },
               {
                  "name" : "total_lifecycle_cost",
                  "units" : "$",
                  "value" : 0.0
               }
            ],
            "step_warnings" : []
         }
      },
      {
         "arguments" : {},
         "description" : "Create CSV output for output variables in SQL file",
         "measure_dir_name" : "CreateCSVOutput",
         "modeler_description" : "Create CSV output for output variables in SQL file",
         "name" : "CreateCSVOutput",
         "result" : 
         {
            "completed_at" : "20260317T130939Z",
            "measure_class_name" : "CreateCSVOutput",
            "measure_display_name" : "CreateCSVOutput",
            "measure_name" : "create_csv_output",
            "measure_taxonomy" : "Reporting.QAQC",
            "measure_type" : "ReportingMeasure",
            "measure_uid" : "99d3a7e5-4bd5-407f-b5eb-7c59660ca980",
            "measure_version_id" : "746b6aa2-67d3-4f0d-8f32-dcdf17f54bca",
            "measure_version_modified" : "20250801T143528Z",
            "measure_xml_checksum" : "9BF1E6AC",
            "started_at" : "20260317T130938Z",
            "stderr" : "",
            "stdout" : "[openstudio.energyplus.SqlFile] <Debug> Dictionary Built\n[openstudio.energyplus.SqlFile] <Debug> Making time series for envPeriod = 'RUN PERIOD 1', reportingFrequency = 'Hourly', timeSeriesName = 'Site Diffuse Solar Radiation Rate per Area', keyValue = 'Environment'\n[openstudio.energyplus.SqlFile] <Debug> RUN PERIOD 1\n[openstudio.energyplus.SqlFile] <Debug> Site Diffuse Solar Radiation Rate per Area\n[openstudio.energyplus.SqlFile] <Debug> SQL Query:\nSELECT dt.VariableValue, Time.Year, Time.Month, Time.Day, Time.Interval FROM ReportVariableData dt INNER JOIN Time ON Time.timeIndex = dt.TimeIndex WHERE  dt.ReportVariableDataDictionaryIndex=8 AND Time.EnvironmentPeriodIndex = 1Return Code:\n100\n[openstudio.energyplus.SqlFile] <Debug> Time series found\n[openstudio.energyplus.SqlFile] <Debug> Making time series for envPeriod = 'RUN PERIOD 1', reportingFrequency = 'Hourly', timeSeriesName = 'Site Direct Solar Radiation Rate per Area', keyValue = 'Environment'\n[openstudio.energyplus.SqlFile] <Debug> RUN PERIOD 1\n[openstudio.energyplus.SqlFile] <Debug> Site Direct Solar Radiation Rate per Area\n[openstudio.energyplus.SqlFile] <Debug> SQL Query:\nSELECT dt.VariableValue, Time.Year, Time.Month, Time.Day, Time.Interval FROM ReportVariableData dt INNER JOIN Time ON Time.timeIndex = dt.TimeIndex WHERE  dt.ReportVariableDataDictionaryIndex=9 AND Time.EnvironmentPeriodIndex = 1Return Code:\n100\n[openstudio.energyplus.SqlFile] <Debug> Time series found\n[openstudio.energyplus.SqlFile] <Debug> Making time series for envPeriod = 'RUN PERIOD 1', reportingFrequency = 'Hourly', timeSeriesName = 'Zone Air Relative Humidity', keyValue = 'ESTE'\n[openstudio.energyplus.SqlFile] <Debug> RUN PERIOD 1\n[openstudio.energyplus.SqlFile] <Debug> Zone Air Relative Humidity\n[openstudio.energyplus.SqlFile] <Debug> SQL Query:\nSELECT dt.VariableValue, Time.Year, Time.Month, Time.Day, Time.Interval FROM ReportVariableData dt INNER JOIN Time ON Time.timeIndex = dt.TimeIndex WHERE  dt.ReportVariableDataDictionaryIndex=11 AND Time.EnvironmentPeriodIndex = 1Return Code:\n100\n[openstudio.energyplus.SqlFile] <Debug> Time series found\n[openstudio.energyplus.SqlFile] <Debug> Making time series for envPeriod = 'RUN PERIOD 1', reportingFrequency = 'Hourly', timeSeriesName = 'Zone Air Relative Humidity', keyValue = 'OESTE'\n[openstudio.energyplus.SqlFile] <Debug> RUN PERIOD 1\n[openstudio.energyplus.SqlFile] <Debug> Zone Air Relative Humidity\n[openstudio.energyplus.SqlFile] <Debug> SQL Query:\nSELECT dt.VariableValue, Time.Year, Time.Month, Time.Day, Time.Interval FROM ReportVariableData dt INNER JOIN Time ON Time.timeIndex = dt.TimeIndex WHERE  dt.ReportVariableDataDictionaryIndex=147 AND Time.EnvironmentPeriodIndex = 1Return Code:\n100\n[openstudio.energyplus.SqlFile] <Debug> Time series found\n[openstudio.energyplus.SqlFile] <Debug> Making time series for envPeriod = 'RUN PERIOD 1', reportingFrequency = 'Hourly', timeSeriesName = 'Zone Air Temperature', keyValue = 'ESTE'\n[openstudio.energyplus.SqlFile] <Debug> RUN PERIOD 1\n[openstudio.energyplus.SqlFile] <Debug> Zone Air Temperature\n[openstudio.energyplus.SqlFile] <Debug> SQL Query:\nSELECT dt.VariableValue, Time.Year, Time.Month, Time.Day, Time.Interval FROM ReportVariableData dt INNER JOIN Time ON Time.timeIndex = dt.TimeIndex WHERE  dt.ReportVariableDataDictionaryIndex=10 AND Time.EnvironmentPeriodIndex = 1Return Code:\n100\n[openstudio.energyplus.SqlFile] <Debug> Time series found\n[openstudio.energyplus.SqlFile] <Debug> Making time series for envPeriod = 'RUN PERIOD 1', reportingFrequency = 'Hourly', timeSeriesName = 'Zone Air Temperature', keyValue = 'OESTE'\n[openstudio.energyplus.SqlFile] <Debug> RUN PERIOD 1\n[openstudio.energyplus.SqlFile] <Debug> Zone Air Temperature\n[openstudio.energyplus.SqlFile] <Debug> SQL Query:\nSELECT dt.VariableValue, Time.Year, Time.Month, Time.Day, Time.Interval FROM ReportVariableData dt INNER JOIN Time ON Time.timeIndex = dt.TimeIndex WHERE  dt.ReportVariableDataDictionaryIndex=146 AND Time.EnvironmentPeriodIndex = 1Return Code:\n100\n[openstudio.energyplus.SqlFile] <Debug> Time series found\n[openstudio.measure.OSRunner] <Info> Output file written to /tmp/osmodel-234a-f2c7-9a1c-475d-1773752768-0/resources/run/005_CreateCSVOutput\n",
            "step_errors" : [],
            "step_files" : 
            [
               "/tmp/osmodel-234a-f2c7-9a1c-475d-1773752768-0/resources/run/005_CreateCSVOutput/report_variables_Hourly.csv"
            ],
            "step_info" : 
            [
               "Output file written to /tmp/osmodel-234a-f2c7-9a1c-475d-1773752768-0/resources/run/005_CreateCSVOutput"
            ],
            "step_result" : "Success",
            "step_values" : 
            [
               {
                  "name" : "reporting_frequency",
                  "value" : "Hourly"
               }
            ],
            "step_warnings" : []
         }
      }
   ],
   "updated_at" : "20260317T130939Z",
   "weather_file" : "MEX_MOR_Cuernavaca-Matamoros.Intl.AP.767260_TMYx.2009-2023.epw"
}