Program Version,EnergyPlus, Version 25.2.0-cf7368216c, YMD=2026.03.17 01:00,
   ** Severe  ** <root>[BuildingSurface:Detailed][Face 0] - Missing required property 'construction_name'.
   **  Fatal  ** Errors occurred on processing input file. Preceding condition(s) cause termination.
   ...Summary of Errors that led to program termination:
   ..... Reference severe error count=1
   ..... Last severe error=<root>[BuildingSurface:Detailed][Face 0] - Missing required property 'construction_name'.
   ************* Warning:  Node connection errors not checked - most system input has not been read (see previous warning).
   ************* Fatal error -- final processing.  Program exited before simulations began.  See previous error messages.
   ************* EnergyPlus Warmup Error Summary. During Warmup: 0 Warning; 0 Severe Errors.
   ************* EnergyPlus Sizing Error Summary. During Sizing: 0 Warning; 0 Severe Errors.
   ************* EnergyPlus Terminated--Fatal Error Detected. 0 Warning; 1 Severe Errors; Elapsed Time=00hr 00min  0.06sec
